
     RDKit          3D

 45 49  0  0  0  0  0  0  0  0999 V2000
    4.1571    2.0727    1.2639 C   0  0  0  0  0  0  0  0  0  0  0  0
    4.2834    0.7433    1.2978 C   0  0  0  0  0  0  0  0  0  0  0  0
    3.5502   -0.1391    0.3250 C   0  0  0  0  0  0  0  0  0  0  0  0
    2.0868    0.0025    0.4808 N   0  0  0  0  0  0  0  0  0  0  0  0
    1.6130   -0.5972    1.7482 C   0  0  0  0  0  0  0  0  0  0  0  0
    0.0878   -0.4603    1.9324 C   0  0  0  0  0  0  0  0  0  0  0  0
   -0.7246   -0.6349    0.6125 C   0  0  2  0  0  0  0  0  0  0  0  0
   -1.1014    0.7142    0.0719 C   0  0  0  0  0  0  0  0  0  0  0  0
   -0.3431    1.4973   -0.8037 C   0  0  0  0  0  0  0  0  0  0  0  0
   -0.9119    2.6954   -1.2781 C   0  0  0  0  0  0  0  0  0  0  0  0
   -2.2383    3.0328   -0.9357 C   0  0  0  0  0  0  0  0  0  0  0  0
   -3.0271    2.1306   -0.1940 C   0  0  0  0  0  0  0  0  0  0  0  0
   -4.3742    2.3787    0.0556 O   0  0  0  0  0  0  0  0  0  0  0  0
   -2.4293    0.9543    0.2556 C   0  0  0  0  0  0  0  0  0  0  0  0
   -3.0624   -0.1472    0.7899 O   0  0  0  0  0  0  0  0  0  0  0  0
   -2.1539   -1.2533    0.8787 C   0  0  1  0  0  0  0  0  0  0  0  0
   -2.5355   -2.3531   -0.1460 C   0  0  1  0  0  0  0  0  0  0  0  0
   -3.9306   -2.5042   -0.1873 O   0  0  0  0  0  0  0  0  0  0  0  0
   -1.9985   -2.0521   -1.5298 C   0  0  0  0  0  0  0  0  0  0  0  0
   -0.7371   -1.6226   -1.6881 C   0  0  0  0  0  0  0  0  0  0  0  0
    0.1270   -1.3578   -0.4639 C   0  0  1  0  0  0  0  0  0  0  0  0
    1.3513   -0.4056   -0.7546 C   0  0  1  0  0  0  0  0  0  0  0  0
    0.8966    0.9132   -1.4401 C   0  0  0  0  0  0  0  0  0  0  0  0
    0.5670   -2.6020    0.0300 O   0  0  0  0  0  0  0  0  0  0  0  0
    3.5145    2.5533    0.5321 H   0  0  0  0  0  0  0  0  0  0  0  0
    4.6988    2.6881    1.9746 H   0  0  0  0  0  0  0  0  0  0  0  0
    4.9350    0.2887    2.0380 H   0  0  0  0  0  0  0  0  0  0  0  0
    3.8579   -1.1986    0.4699 H   0  0  0  0  0  0  0  0  0  0  0  0
    3.8682    0.1660   -0.6974 H   0  0  0  0  0  0  0  0  0  0  0  0
    1.9129   -1.6661    1.8104 H   0  0  0  0  0  0  0  0  0  0  0  0
    2.0989   -0.0876    2.6084 H   0  0  0  0  0  0  0  0  0  0  0  0
   -0.2100   -1.2300    2.6762 H   0  0  0  0  0  0  0  0  0  0  0  0
   -0.1361    0.5241    2.4020 H   0  0  0  0  0  0  0  0  0  0  0  0
   -0.3567    3.3312   -1.9562 H   0  0  0  0  0  0  0  0  0  0  0  0
   -2.6717    3.9495   -1.3143 H   0  0  0  0  0  0  0  0  0  0  0  0
   -4.8247    3.2233   -0.2766 H   0  0  0  0  0  0  0  0  0  0  0  0
   -2.2406   -1.6906    1.8966 H   0  0  0  0  0  0  0  0  0  0  0  0
   -2.0704   -3.3063    0.1982 H   0  0  0  0  0  0  0  0  0  0  0  0
   -4.1121   -3.3843   -0.6102 H   0  0  0  0  0  0  0  0  0  0  0  0
   -2.6337   -2.1812   -2.4011 H   0  0  0  0  0  0  0  0  0  0  0  0
   -0.3635   -1.4177   -2.6863 H   0  0  0  0  0  0  0  0  0  0  0  0
    2.0228   -0.9401   -1.4662 H   0  0  0  0  0  0  0  0  0  0  0  0
    0.6810    0.7147   -2.5115 H   0  0  0  0  0  0  0  0  0  0  0  0
    1.7169    1.6633   -1.4099 H   0  0  0  0  0  0  0  0  0  0  0  0
    1.1605   -3.0051   -0.6568 H   0  0  0  0  0  0  0  0  0  0  0  0
  1  2  2  0
  2  3  1  0
  3  4  1  0
  4  5  1  0
  5  6  1  0
  7  6  1  1
  7  8  1  0
  8  9  2  0
  9 10  1  0
 10 11  2  0
 11 12  1  0
 12 13  1  0
 12 14  2  0
 14 15  1  0
 15 16  1  0
 16 17  1  0
 17 18  1  0
 17 19  1  0
 19 20  2  0
 20 21  1  0
 21 22  1  0
 22 23  1  0
 21 24  1  1
 22  4  1  0
 16  7  1  0
 21  7  1  0
 14  8  1  0
 23  9  1  0
  1 25  1  0
  1 26  1  0
  2 27  1  0
  3 28  1  0
  3 29  1  0
  5 30  1  0
  5 31  1  0
  6 32  1  0
  6 33  1  0
 10 34  1  0
 11 35  1  0
 13 36  1  0
 16 37  1  1
 17 38  1  1
 18 39  1  0
 19 40  1  0
 20 41  1  0
 22 42  1  6
 23 43  1  0
 23 44  1  0
 24 45  1  0
M  END
$$$$
